data/input/matpower/sample_856.m
function mpc = powergrid
mpc.version = '2';
mpc.baseMVA = 100;
mpc.bus = [
	1	1	278.825437	-13.371318	0	-400	1	1.061998	6.713817	130	1	1.100000	0.900000;
	2	1	217.699253	143.984959	0	0	1	1.084995	6.575633	130	1	1.100000	0.900000;
	3	1	22.515601	6.962770	0	0	1	1.038002	11.134742	130	1	1.100000	0.900000;
	4	1	210.622947	46.856473	0	0	1	1.067024	8.266283	130	1	1.100000	0.900000;
	5	1	64.605537	30.989959	0	0	1	1.001055	-4.101414	130	1	1.100000	0.900000;
	6	1	334.240067	107.726118	0	0	1	0.983810	-3.796811	130	1	1.100000	0.900000;
	7	1	357.202807	236.104045	0	0	1	0.983145	-5.146083	130	1	1.100000	0.900000;
	8	1	14.035761	3.239889	0	0	1	1.065606	-0.592446	130	1	1.100000	0.900000;
	9	1	19.066061	7.113612	0	0	1	1.059238	-0.108201	130	1	1.100000	0.900000;
	10	1	151.525241	77.497910	0	0	1	1.076838	4.632909	220	1	1.100000	0.900000;
	11	1	49.233299	18.461004	0	0	1	1.020391	12.745846	220	1	1.100000	0.900000;
	12	1	4.384551	3.115338	0	-400	1	1.035753	9.979447	400	1	1.100000	0.900000;
	13	1	69.930628	39.618287	0	0	1	1.077680	9.203145	400	1	1.100000	0.900000;
	14	1	192.484024	123.399401	0	0	1	1.090976	-1.019715	400	1	1.100000	0.900000;
	15	1	16.880575	5.788927	0	0	1	1.082812	2.404100	400	1	1.100000	0.900000;
	16	1	5.802398	2.559222	0	0	1	1.071599	0.246550	400	1	1.100000	0.900000;
	17	1	88.634714	56.394379	0	0	1	1.061754	-0.472191	400	1	1.100000	0.900000;
	18	1	254.289531	22.687662	0	0	1	1.050297	-0.917604	400	1	1.100000	0.900000;
	19	1	77.014885	21.482106	0	0	1	1.044574	4.378900	400	1	1.100000	0.900000;
	20	1	351.033024	177.294645	0	0	1	0.992622	-7.742246	400	1	1.100000	0.900000;
	21	1	277.239240	205.526826	0	0	1	0.978278	-7.085852	400	1	1.100000	0.900000;
	22	1	1020.917488	711.876547	0	0	1	0.939230	-9.137252	400	1	1.100000	0.900000;
	23	1	0	0	0	-100	1	0.984289	6.974158	400	1	1.100000	0.900000;
	24	1	0	0	0	0	1	1.054770	9.467993	130	1	1.100000	0.900000;
	25	1	0	0	0	0	1	1.070263	8.240195	130	1	1.100000	0.900000;
	26	1	0	0	0	0	1	0.985263	6.918792	400	1	1.100000	0.900000;
	27	1	0	0	0	0	1	1.092132	3.508399	400	1	1.100000	0.900000;
	28	1	0	0	0	0	1	1.021115	6.706924	400	1	1.100000	0.900000;
	29	1	0	0	0	0	1	1.077818	2.936955	400	1	1.100000	0.900000;
	30	1	0	0	0	0	1	0.982079	1.288678	400	1	1.100000	0.900000;
	31	1	0	0	0	0	1	1.055170	3.675404	400	1	1.100000	0.900000;
	32	1	0	0	0	0	1	1.045632	-5.329511	400	1	1.100000	0.900000;
	33	1	0	0	0	0	1	1.045632	-5.329511	400	1	1.100000	0.900000;
	34	1	0	0	0	0	1	1.042299	1.884588	400	1	1.100000	0.900000;
	35	1	0	0	0	0	1	1.023541	-1.631028	400	1	1.100000	0.900000;
	36	1	0	0	0	0	1	1.077434	0.147102	400	1	1.100000	0.900000;
	37	1	0	0	0	0	1	1.064662	0.347974	400	1	1.100000	0.900000;
	38	2	0	0	0	0	1	0	6.575633	15	1	1.100000	0.900000;
	39	2	0	0	0	0	1	1	16.212038	15	1	1.100000	0.900000;
	40	2	0	0	0	0	1	0	9.467993	15	1	1.100000	0.900000;
	41	2	0	0	0	0	1	0	8.240195	15	1	1.100000	0.900000;
	42	2	0	0	0	0	1	1	23.757938	15	1	1.100000	0.900000;
	43	2	0	0	0	0	1	1	1.890794	15	1	1.100000	0.900000;
	44	2	0	0	0	0	1	1	-2.482736	15	1	1.100000	0.900000;
	45	2	0	0	0	0	1	1	16.456693	15	1	1.100000	0.900000;
	46	2	0	0	0	0	1	0	6.918792	15	1	1.100000	0.900000;
	47	2	0	0	0	0	1	0	6.974158	15	1	1.100000	0.900000;
	48	2	0	0	0	0	1	0	3.508399	15	1	1.100000	0.900000;
	49	2	0	0	0	0	1	1	6.599241	15	1	1.100000	0.900000;
	50	2	0	0	0	0	1	0	-1.019715	15	1	1.100000	0.900000;
	51	2	0	0	0	0	1	1	7.570305	15	1	1.100000	0.900000;
	52	3	0	0	0	0	1	1	0	15	1	1.000000	1.000000;
	53	2	0	0	0	0	1	0	-0.917604	15	1	1.100000	0.900000;
	54	2	0	0	0	0	1	0	4.378900	15	1	1.100000	0.900000;
	55	2	0	0	0	0	1	1	9.734763	15	1	1.100000	0.900000;
	56	2	0	0	0	0	1	1	-1.365975	15	1	1.100000	0.900000;
	57	2	0	0	0	0	1	1	-3.178731	15	1	1.100000	0.900000;
	58	2	0	0	0	0	1	1	-3.178731	15	1	1.100000	0.900000;
	59	2	0	0	0	0	1	1	15.380948	15	1	1.100000	0.900000;
	60	2	0	0	0	0	1	0	9.203145	15	1	1.100000	0.900000;
	61	2	0	0	0	0	1	0	-4.101414	15	1	1.100000	0.900000;
];
mpc.gen = [
	52	0	0	1840.000000	-540.000000	1	1	1	2800.000000	10.000000	0	0	0	0	0	0	0	0	0	0	0;
	38	0	0	720.000000	-720.000000	0	100	0	720.000000	10.000000	0	0	0	0	0	0	0	0	0	0	0;
	39	367.451048	0	540.000000	-540.000000	1	100	1	540.000000	10.000000	0	0	0	0	0	0	0	0	0	0	0;
	40	0	0	630.000000	-630.000000	0	100	0	630.000000	10.000000	0	0	0	0	0	0	0	0	0	0	0;
	41	0	0	540.000000	-540.000000	0	100	0	540.000000	10.000000	0	0	0	0	0	0	0	0	0	0	0;
	42	475.000000	0	325.000000	-225.000000	1	100	1	475.000000	10.000000	0	0	0	0	0	0	0	0	0	0	0;
	43	260.000000	0	560.000000	-360.000000	1	100	1	560.000000	10.000000	0	0	0	0	0	0	0	0	0	0	0;
	44	60.912288	0	360.000000	-280.000000	1	100	1	380.000000	10.000000	0	0	0	0	0	0	0	0	0	0	0;
	45	374.233299	0	965.000000	-765.000000	1	100	1	965.000000	10.000000	0	0	0	0	0	0	0	0	0	0	0;
	46	0	0	900.000000	-900.000000	0	100	0	900.000000	10.000000	0	0	0	0	0	0	0	0	0	0	0;
	47	0	0	720.000000	-720.000000	0	100	0	720.000000	10.000000	0	0	0	0	0	0	0	0	0	0	0;
	48	0	0	570.000000	-370.000000	0	100	0	570.000000	10.000000	0	0	0	0	0	0	0	0	0	0	0;
	49	125.586433	0	515.000000	-415.000000	1	100	1	575.000000	10.000000	0	0	0	0	0	0	0	0	0	0	0;
	50	0	0	570.000000	-570.000000	0	100	0	0.000000	-0.000000	0	0	0	0	0	0	0	0	0	0	0;
	51	455.000000	0	630.000000	-630.000000	1	100	1	630.000000	10.000000	0	0	0	0	0	0	0	0	0	0	0;
	53	0	0	580.000000	-540.000000	0	100	0	540.000000	10.000000	0	0	0	0	0	0	0	0	0	0	0;
	54	0	0	630.000000	-630.000000	0	100	0	630.000000	10.000000	0	0	0	0	0	0	0	0	0	0	0;
	55	455.000000	0	630.000000	-630.000000	1	100	1	630.000000	10.000000	0	0	0	0	0	0	0	0	0	0	0;
	56	390.000000	0	540.000000	-540.000000	1	100	1	540.000000	10.000000	0	0	0	0	0	0	0	0	0	0	0;
	57	390.000000	0	540.000000	-540.000000	1	100	1	540.000000	10.000000	0	0	0	0	0	0	0	0	0	0	0;
	58	390.000000	0	540.000000	-540.000000	1	100	1	540.000000	10.000000	0	0	0	0	0	0	0	0	0	0	0;
	59	325.000000	0	520.000000	-450.000000	1	100	1	560.000000	10.000000	0	0	0	0	0	0	0	0	0	0	0;
	60	0	0	4000.000000	-2050.000000	0	100	0	4500.000000	10.000000	0	0	0	0	0	0	0	0	0	0	0;
	61	0	0	250.000000	-250.000000	0	100	0	0.000000	-0.000000	0	0	0	0	0	0	0	0	0	0	0;
];
mpc.branch = [
	1	3	0.010000	0.070000	0.013804	175.000000	250	250	0	0	1	-360	360;
	1	3	0.010000	0.070000	0.013804	175.000000	250	250	0	0	1	-360	360;
	2	24	0.014024	0.090000	0.018052	175.000000	250	250	0	0	1	-360	360;
	2	24	0.014024	0.090000	0.018052	175.000000	250	250	0	0	1	-360	360;
	3	24	0.006982	0.050000	0.010088	175.000000	250	250	0	0	1	-360	360;
	3	24	0.006982	0.050000	0.010088	175.000000	250	250	0	0	1	-360	360;
	25	4	0.030000	0.200000	0.030263	175.000000	250	250	0	0	1	-360	360;
	25	4	0.030000	0.200000	0.030263	175.000000	250	250	0	0	1	-360	360;
	5	7	0.010000	0.060000	0.012211	175.000000	250	250	0	0	1	-360	360;
	5	7	0.010000	0.060000	0.012211	175.000000	250	250	0	0	1	-360	360;
	5	9	0.014970	0.120000	0.024954	175.000000	250	250	0	0	1	-360	360;
	5	9	0.014970	0.120000	0.024954	175.000000	250	250	0	0	1	-360	360;
	6	8	0.037988	0.280000	0.059995	175.000000	250	250	0	0	1	-360	360;
	6	8	0.037988	0.280000	0.059995	175.000000	250	250	0	0	1	-360	360;
	6	9	0.050000	0.300000	0.059995	175.000000	250	250	0	0	1	-360	360;
	7	8	0.010000	0.080000	0.015928	175.000000	250	250	0	0	1	-360	360;
	7	8	0.010000	0.080000	0.015928	175.000000	250	250	0	0	1	-360	360;
	10	11	0.012004	0.090000	0.015205	250.000000	250	250	0	0	1	-360	360;
	10	11	0.012004	0.090000	0.015205	250.000000	250	250	0	0	1	-360	360;
	26	23	0.001000	0.008000	0.201062	700.000000	250	250	0	0	1	-360	360;
	26	27	0.006000	0.060000	1.799488	700.000000	250	250	0	0	1	-360	360;
	26	28	0.004000	0.040000	1.201344	700.000000	250	250	0	0	1	-360	360;
	26	12	0.005000	0.045000	1.402400	700.000000	250	250	0	0	1	-360	360;
	23	28	0.004000	0.035000	1.050560	700.000000	250	250	0	0	1	-360	360;
	23	12	0.005000	0.050000	1.497920	700.000000	250	250	0	0	1	-360	360;
	27	29	0.004000	0.040000	1.201344	700.000000	250	250	0	0	1	-360	360;
	27	30	0.010000	0.100000	3.000864	700.000000	250	250	0	0	1	-360	360;
	30	15	0	-0.040000	0	700.000000	250	250	0	0	1	-360	360;
	28	31	0.004000	0.040000	1.201344	700.000000	250	250	0	0	1	-360	360;
	28	31	0.004000	0.040000	1.201344	700.000000	250	250	0	0	1	-360	360;
	31	29	0.001000	0.010000	0.301594	700.000000	250	250	0	0	1	-360	360;
	31	32	0.006000	0.080000	2.397664	700.000000	250	250	0	0	1	-360	360;
	32	14	0	-0.040000	0	700.000000	250	250	0	0	1	-360	360;
	31	33	0.006000	0.080000	2.397664	700.000000	250	250	0	0	1	-360	360;
	33	14	0	-0.040000	0	700.000000	250	250	0	0	1	-360	360;
	29	34	0.010000	0.066669	2.000576	700.000000	250	250	0	0	1	-360	360;
	34	15	0	-0.026669	0	700.000000	250	250	0	0	1	-360	360;
	29	35	0.006000	0.080000	2.397664	700.000000	250	250	0	0	1	-360	360;
	35	36	0	-0.030000	0	700.000000	250	250	0	0	1	-360	360;
	14	36	0.003000	0.030000	0.899744	700.000000	250	250	0	0	1	-360	360;
	14	20	0.006000	0.045000	1.301888	700.000000	250	250	0	0	1	-360	360;
	15	16	0.002000	0.015000	0.497632	700.000000	250	250	0	0	1	-360	360;
	15	36	0.002000	0.020000	0.598176	700.000000	250	250	0	0	1	-360	360;
	16	36	0.001000	0.010000	0.301594	700.000000	250	250	0	0	1	-360	360;
	16	17	0.001000	0.010000	0.301594	700.000000	250	250	0	0	1	-360	360;
	16	18	0.002000	0.020000	0.598176	700.000000	250	250	0	0	1	-360	360;
	36	37	0.002000	0.020000	0.598176	700.000000	250	250	0	0	1	-360	360;
	36	37	0.002000	0.020000	0.598176	700.000000	250	250	0	0	0	-360	360;
	37	19	0.004000	0.040000	1.201344	700.000000	250	250	0	0	1	-360	360;
	37	19	0.004000	0.040000	1.201344	700.000000	250	250	0	0	1	-360	360;
	37	21	0.011000	0.080000	2.397664	700.000000	250	250	0	0	1	-360	360;
	17	18	0.001000	0.015000	0.497632	700.000000	250	250	0	0	1	-360	360;
	20	21	0.002000	0.020000	0.598176	700.000000	250	250	0	0	1	-360	360;
	21	22	0.003000	0.030000	0.899744	700.000000	250	250	0	0	1	-360	360;
	21	22	0.003000	0.030000	0.899744	700.000000	250	250	0	0	1	-360	360;
	12	13	0.003000	0.030000	3.000864	700.000000	250	250	0	0	1	-360	360;
	12	13	0.003000	0.030000	3.000864	700.000000	250	250	0	0	1	-360	360;
	2	38	0	0.018750	0	800	250	250	0	0	1	-360	360;
	3	39	0	0.025000	0	600	250	250	0	0	1	-360	360;
	24	40	0	0.021429	0	700	250	250	0	0	1	-360	360;
	25	41	0	0.025000	0	600	250	250	0	0	1	-360	360;
	4	42	0	0.060000	0	1250	250	250	0	0	1	-360	360;
	6	43	0	0.037500	0	400	250	250	0	0	1	-360	360;
	7	44	0	0.075000	0	1200	250	250	0	0	1	-360	360;
	11	45	0	0.017647	0	850	250	250	0	0	1	-360	360;
	26	46	0	0.015000	0	1000	250	250	0	0	1	-360	360;
	23	47	0	0.018750	0	800	250	250	0	0	1	-360	360;
	27	48	0	0.050000	0	300	250	250	0	0	1	-360	360;
	31	49	0	0.042857	0	1350	250	250	0	0	1	-360	360;
	14	50	0	0.017391	0	575	250	250	0	0	1	-360	360;
	15	51	0	0.021429	0	700	250	250	0	0	1	-360	360;
	18	52	0	0.025000	0	600	250	250	0	0	1	-360	360;
	18	53	0	0.025000	0	600	250	250	0	0	1	-360	360;
	19	54	0	0.021429	0	700	250	250	0	0	1	-360	360;
	19	55	0	0.021429	0	700	250	250	0	0	1	-360	360;
	21	56	0	0.025000	0	600	250	250	0	0	1	-360	360;
	22	57	0	0.025000	0	600	250	250	0	0	1	-360	360;
	22	58	0	0.025000	0	600	250	250	0	0	1	-360	360;
	12	59	0	0.030000	0	500	250	250	0	0	1	-360	360;
	13	60	0	0.003333	0	4500	250	250	0	0	1	-360	360;
	26	1	0	0.008000	0	1250	250	250	0.892860	0	1	-360	360;
	23	2	0	0.008000	0	1250	250	250	0.892860	0	1	-360	360;
	28	4	0	0.012000	0	833.300000	250	250	0.934580	0	1	-360	360;
	31	10	0	0.012000	0	833.300000	250	250	0.952380	0	1	-360	360;
	36	8	0	0.010000	0	1000	250	250	0	0	1	-360	360;
	36	8	0	0.010000	0	1000	250	250	0	0	1	-360	360;
	37	9	0	0.010000	0	1000	250	250	0	0	1	-360	360;
	37	9	0	0.010000	0	1000	250	250	0	0	1	-360	360;
	5	61	0	0.025000	0	1200	250	250	0	0	1	-360	360;
];
